functions/OneTimeScripts/validationAgainstOpenDSS_MATLAB/ieee123_1ph_created/results/pv010_batt010/powers23.csv
Element, Terminal, P(kW), Q(kvar),  P_Normal, Q_Normal, P_Emergency, Q_Emergency
"Line.L115"             ,   1,       853.5,       262.2,         0.0,         0.0,         0.0,         0.0
"Line.L115"             ,   2,      -850.3,      -255.7
"Line.L1"               ,   1,         4.8,         2.4,         0.0,         0.0,         0.0,         0.0
"Line.L1"               ,   2,        -4.8,        -2.4
"Line.L2"               ,   1,        24.0,        12.0,         0.0,         0.0,         0.0,         0.0
"Line.L2"               ,   2,       -24.0,       -12.0
"Line.L3"               ,   1,       811.9,       236.5,         0.0,         0.0,         0.0,         0.0
"Line.L3"               ,   2,      -809.7,      -232.1
"Line.L4"               ,   1,         9.6,         4.8,         0.0,         0.0,         0.0,         0.0
"Line.L4"               ,   2,        -9.6,        -4.8
"Line.L5"               ,   1,        14.4,         7.2,         0.0,         0.0,         0.0,         0.0
"Line.L5"               ,   2,       -14.4,        -7.2
"Line.L6"               ,   1,         9.6,         4.8,         0.0,         0.0,         0.0,         0.0
"Line.L6"               ,   2,        -9.6,        -4.8
"Line.L7"               ,   1,       804.9,       229.7,         0.0,         0.0,         0.0,         0.0
"Line.L7"               ,   2,      -803.5,      -226.8
"Line.L8"               ,   1,         4.8,         2.4,         0.0,         0.0,         0.0,         0.0
"Line.L8"               ,   2,        -4.8,        -2.4
"Line.L9"               ,   1,        24.0,        12.0,         0.0,         0.0,         0.0,         0.0
"Line.L9"               ,   2,       -24.0,       -12.0
"Line.L10"              ,   1,       774.7,       212.4,         0.0,         0.0,         0.0,         0.0
"Line.L10"              ,   2,      -772.7,      -208.3
"Line.L11"              ,   1,        14.4,         7.2,         0.0,         0.0,         0.0,         0.0
"Line.L11"              ,   2,       -14.4,        -7.2
"Line.L12"              ,   1,        24.0,        12.0,         0.0,         0.0,         0.0,         0.0
"Line.L12"              ,   2,       -24.0,       -12.0
"Line.L13"              ,   1,       269.0,       158.7,         0.0,         0.0,         0.0,         0.0
"Line.L13"              ,   2,      -268.1,      -157.0
"Line.L14"              ,   1,         9.6,         4.8,         0.0,         0.0,         0.0,         0.0
"Line.L14"              ,   2,        -9.6,        -4.8
"Line.L15"              ,   1,         4.8,         2.4,         0.0,         0.0,         0.0,         0.0
"Line.L15"              ,   2,        -4.8,        -2.4
"Line.L16"              ,   1,         9.6,         4.8,         0.0,         0.0,         0.0,         0.0
"Line.L16"              ,   2,        -9.6,        -4.8
"Line.L17"              ,   1,         4.8,         2.4,         0.0,         0.0,         0.0,         0.0
"Line.L17"              ,   2,        -4.8,        -2.4
"Line.L18"              ,   1,        19.2,         9.6,         0.0,         0.0,         0.0,         0.0
"Line.L18"              ,   2,       -19.2,        -9.6
"Line.L19"              ,   1,        67.3,        33.7,         0.0,         0.0,         0.0,         0.0
"Line.L19"              ,   2,       -67.2,       -33.6
"Line.L20"              ,   1,         9.6,         4.8,         0.0,         0.0,         0.0,         0.0
"Line.L20"              ,   2,        -9.6,        -4.8
"Line.L21"              ,   1,         9.6,         4.8,         0.0,         0.0,         0.0,         0.0
"Line.L21"              ,   2,        -9.6,        -4.8
"Line.L22"              ,   1,        57.6,        28.8,         0.0,         0.0,         0.0,         0.0
"Line.L22"              ,   2,       -57.6,       -28.8
"Line.L23"              ,   1,         9.6,         4.8,         0.0,         0.0,         0.0,         0.0
"Line.L23"              ,   2,        -9.6,        -4.8
"Line.L24"              ,   1,        48.0,        24.0,         0.0,         0.0,         0.0,         0.0
"Line.L24"              ,   2,       -48.0,       -24.0
"Line.L25"              ,   1,        19.2,         9.6,         0.0,         0.0,         0.0,         0.0
"Line.L25"              ,   2,       -19.2,        -9.6
"Line.L26"              ,   1,        28.8,        14.4,         0.0,         0.0,         0.0,         0.0
"Line.L26"              ,   2,       -28.8,       -14.4
"Line.L27"              ,   1,         9.6,         4.8,         0.0,         0.0,         0.0,         0.0
"Line.L27"              ,   2,        -9.6,        -4.8
"Line.L28"              ,   1,         9.6,         4.8,         0.0,         0.0,         0.0,         0.0
"Line.L28"              ,   2,        -9.6,        -4.8
"Line.L29"              ,   1,         9.6,         4.8,         0.0,         0.0,         0.0,         0.0
"Line.L29"              ,   2,        -9.6,        -4.8
"Line.L30"              ,   1,        19.2,         9.6,         0.0,         0.0,         0.0,         0.0
"Line.L30"              ,   2,       -19.2,        -9.6
"Line.L31"              ,   1,         9.6,         4.8,         0.0,         0.0,         0.0,         0.0
"Line.L31"              ,   2,        -9.6,        -4.8
"Line.L32"              ,   1,         0.0,        -0.0,         0.0,         0.0,         0.0,         0.0
"Line.L32"              ,   2,         0.0,         0.0
"Line.L33"              ,   1,         4.8,         2.4,         0.0,         0.0,         0.0,         0.0
"Line.L33"              ,   2,        -4.8,        -2.4
"Line.L34"              ,   1,        14.4,         7.2,         0.0,         0.0,         0.0,         0.0
"Line.L34"              ,   2,       -14.4,        -7.2
"Line.L35"              ,   1,        19.2,         9.6,         0.0,         0.0,         0.0,         0.0
"Line.L35"              ,   2,       -19.2,        -9.6
"Line.L36"              ,   1,       152.7,        99.0,         0.0,         0.0,         0.0,         0.0
"Line.L36"              ,   2,      -152.6,       -98.8
"Line.L37"              ,   1,         9.6,         4.8,         0.0,         0.0,         0.0,         0.0
"Line.L37"              ,   2,        -9.6,        -4.8
"Line.L38"              ,   1,         9.6,         4.8,         0.0,         0.0,         0.0,         0.0
"Line.L38"              ,   2,        -9.6,        -4.8
"Line.L39"              ,   1,         4.8,         2.4,         0.0,         0.0,         0.0,         0.0
"Line.L39"              ,   2,        -4.8,        -2.4
"Line.L40"              ,   1,         4.8,         2.4,         0.0,         0.0,         0.0,         0.0
"Line.L40"              ,   2,        -4.8,        -2.4
"Line.L41"              ,   1,       147.8,        96.4,         0.0,         0.0,         0.0,         0.0
"Line.L41"              ,   2,      -147.7,       -96.2
"Line.L42"              ,   1,         9.6,         4.8,         0.0,         0.0,         0.0,         0.0
"Line.L42"              ,   2,        -9.6,        -4.8
"Line.L43"              ,   1,       133.3,        89.0,         0.0,         0.0,         0.0,         0.0
"Line.L43"              ,   2,      -133.3,       -88.9
"Line.L44"              ,   1,         9.6,         4.8,         0.0,         0.0,         0.0,         0.0
"Line.L44"              ,   2,        -9.6,        -4.8
"Line.L45"              ,   1,       123.7,        84.1,         0.0,         0.0,         0.0,         0.0
"Line.L45"              ,   2,      -123.6,       -84.0
"Line.L46"              ,   1,         4.8,         2.4,         0.0,         0.0,         0.0,         0.0
"Line.L46"              ,   2,        -4.8,        -2.4
"Line.L47"              ,   1,        50.4,        36.0,         0.0,         0.0,         0.0,         0.0
"Line.L47"              ,   2,       -50.4,       -36.0
"Line.L48"              ,   1,        48.0,        30.0,         0.0,         0.0,         0.0,         0.0
"Line.L48"              ,   2,       -48.0,       -30.0
"Line.L49"              ,   1,        14.4,         7.2,         0.0,         0.0,         0.0,         0.0
"Line.L49"              ,   2,       -14.4,        -7.2
"Line.L50"              ,   1,         4.8,         2.4,         0.0,         0.0,         0.0,         0.0
"Line.L50"              ,   2,        -4.8,        -2.4
"Line.L51"              ,   1,         0.0,        -0.0,         0.0,         0.0,         0.0,         0.0
"Line.L51"              ,   2,         0.0,        -0.0
"Line.L52"              ,   1,       469.2,        30.9,         0.0,         0.0,         0.0,         0.0
"Line.L52"              ,   2,      -468.7,       -29.9
"Line.L53"              ,   1,       459.1,        25.1,         0.0,         0.0,         0.0,         0.0
"Line.L53"              ,   2,      -458.9,       -24.6
"Line.L54"              ,   1,         9.6,         4.8,         0.0,         0.0,         0.0,         0.0
"Line.L54"              ,   2,        -9.6,        -4.8
"Line.L55"              ,   1,       449.3,        19.8,         0.0,         0.0,         0.0,         0.0
"Line.L55"              ,   2,      -448.5,       -18.3
"Line.L56"              ,   1,         4.8,         2.4,         0.0,         0.0,         0.0,         0.0
"Line.L56"              ,   2,        -4.8,        -2.4
"Line.L57"              ,   1,         9.6,         4.8,         0.0,         0.0,         0.0,         0.0
"Line.L57"              ,   2,        -9.6,        -4.8
"Line.L58"              ,   1,       438.9,        13.5,         0.0,         0.0,         0.0,         0.0
"Line.L58"              ,   2,      -437.4,       -10.4
"Line.L59"              ,   1,         4.8,         2.4,         0.0,         0.0,         0.0,         0.0
"Line.L59"              ,   2,        -4.8,        -2.4
"Line.L60"              ,   1,         0.0,        -0.0,         0.0,         0.0,         0.0,         0.0
"Line.L60"              ,   2,        -0.0,         0.0
"Line.L61"              ,   1,        89.1,        50.4,         0.0,         0.0,         0.0,         0.0
"Line.L61"              ,   2,       -89.0,       -50.4
"Line.L62"              ,   1,        79.4,        45.6,         0.0,         0.0,         0.0,         0.0
"Line.L62"              ,   2,       -79.3,       -45.6
"Line.L63"              ,   1,        69.7,        40.8,         0.0,         0.0,         0.0,         0.0
"Line.L63"              ,   2,       -69.7,       -40.8
"Line.L64"              ,   1,        51.7,        32.4,         0.0,         0.0,         0.0,         0.0
"Line.L64"              ,   2,       -51.6,       -32.4
"Line.L65"              ,   1,        18.0,         8.4,         0.0,         0.0,         0.0,         0.0
"Line.L65"              ,   2,       -18.0,        -8.4
"Line.L66"              ,   1,        28.8,        14.4,         0.0,         0.0,         0.0,         0.0
"Line.L66"              ,   2,       -28.8,       -14.4
"Line.L67"              ,   1,       208.5,      -110.8,         0.0,         0.0,         0.0,         0.0
"Line.L67"              ,   2,      -208.3,       111.1
"Line.L68"              ,   1,       105.8,        53.0,         0.0,         0.0,         0.0,         0.0
"Line.L68"              ,   2,      -105.7,       -52.9
"Line.L69"              ,   1,        24.0,        12.0,         0.0,         0.0,         0.0,         0.0
"Line.L69"              ,   2,       -24.0,       -12.0
"Line.L70"              ,   1,        14.4,         7.2,         0.0,         0.0,         0.0,         0.0
"Line.L70"              ,   2,       -14.4,        -7.2
"Line.L71"              ,   1,         9.6,         4.8,         0.0,         0.0,         0.0,         0.0
"Line.L71"              ,   2,        -9.6,        -4.8
"Line.L72"              ,   1,        28.8,        14.4,         0.0,         0.0,         0.0,         0.0
"Line.L72"              ,   2,       -28.8,       -14.4
"Line.L73"              ,   1,       179.5,      -125.5,         0.0,         0.0,         0.0,         0.0
"Line.L73"              ,   2,      -179.4,       125.8
"Line.L74"              ,   1,        19.2,         9.6,         0.0,         0.0,         0.0,         0.0
"Line.L74"              ,   2,       -19.2,        -9.6
"Line.L75"              ,   1,         9.6,         4.8,         0.0,         0.0,         0.0,         0.0
"Line.L75"              ,   2,        -9.6,        -4.8
"Line.L76"              ,   1,        58.1,      -154.7,         0.0,         0.0,         0.0,         0.0
"Line.L76"              ,   2,       -58.0,       154.9
"Line.L77"              ,   1,        62.5,       -14.3,         0.0,         0.0,         0.0,         0.0
"Line.L77"              ,   2,       -62.4,        14.3
"Line.L78"              ,   1,        48.4,      -159.7,         0.0,         0.0,         0.0,         0.0
"Line.L78"              ,   2,       -48.4,       159.8
"Line.L79"              ,   1,         9.6,         4.8,         0.0,         0.0,         0.0,         0.0
"Line.L79"              ,   2,        -9.6,        -4.8
"Line.L80"              ,   1,        38.8,      -164.6,         0.0,         0.0,         0.0,         0.0
"Line.L80"              ,   2,       -38.6,       164.9
"Line.L81"              ,   1,        29.0,      -169.7,         0.0,         0.0,         0.0,         0.0
"Line.L81"              ,   2,       -29.0,       169.8
"Line.L82"              ,   1,        14.6,      -177.0,         0.0,         0.0,         0.0,         0.0
"Line.L82"              ,   2,       -14.5,       177.2
"Line.L83"              ,   1,        14.4,         7.2,         0.0,         0.0,         0.0,         0.0
"Line.L83"              ,   2,       -14.4,        -7.2
"Line.L84"              ,   1,         4.9,      -182.0,         0.0,         0.0,         0.0,         0.0
"Line.L84"              ,   2,        -4.8,       182.2
"Line.L85"              ,   1,         9.6,         4.8,         0.0,         0.0,         0.0,         0.0
"Line.L85"              ,   2,        -9.6,        -4.8
"Line.L86"              ,   1,        57.6,       -16.7,         0.0,         0.0,         0.0,         0.0
"Line.L86"              ,   2,       -57.6,        16.8
"Line.L87"              ,   1,         9.6,       -10.4,         0.0,         0.0,         0.0,         0.0
"Line.L87"              ,   2,        -9.6,        10.4
"Line.L88"              ,   1,        38.4,       -11.2,         0.0,         0.0,         0.0,         0.0
"Line.L88"              ,   2,       -38.4,        11.2
"Line.L89"              ,   1,         9.6,       -10.4,         0.0,         0.0,         0.0,         0.0
"Line.L89"              ,   2,        -9.6,        10.4
"Line.L90"              ,   1,        28.8,        -0.8,         0.0,         0.0,         0.0,         0.0
"Line.L90"              ,   2,       -28.8,         0.8
"Line.L91"              ,   1,         9.6,       -10.4,         0.0,         0.0,         0.0,         0.0
"Line.L91"              ,   2,        -9.6,        10.4
"Line.L92"              ,   1,        19.2,         9.6,         0.0,         0.0,         0.0,         0.0
"Line.L92"              ,   2,       -19.2,        -9.6
"Line.L93"              ,   1,         9.6,         4.8,         0.0,         0.0,         0.0,         0.0
"Line.L93"              ,   2,        -9.6,        -4.8
"Line.L94"              ,   1,         9.6,         4.8,         0.0,         0.0,         0.0,         0.0
"Line.L94"              ,   2,        -9.6,        -4.8
"Line.L95"              ,   1,         4.8,         2.4,         0.0,         0.0,         0.0,         0.0
"Line.L95"              ,   2,        -4.8,        -2.4
"Line.L96"              ,   1,        28.8,        14.4,         0.0,         0.0,         0.0,         0.0
"Line.L96"              ,   2,       -28.8,       -14.4
"Line.L97"              ,   1,        19.2,         9.6,         0.0,         0.0,         0.0,         0.0
"Line.L97"              ,   2,       -19.2,        -9.6
"Line.L98"              ,   1,         9.6,         4.8,         0.0,         0.0,         0.0,         0.0
"Line.L98"              ,   2,        -9.6,        -4.8
"Line.L99"              ,   1,         0.0,        -0.0,         0.0,         0.0,         0.0,         0.0
"Line.L99"              ,   2,         0.0,         0.0
"Line.L118"             ,   1,        76.9,        38.5,         0.0,         0.0,         0.0,         0.0
"Line.L118"             ,   2,       -76.9,       -38.5
"Line.L100"             ,   1,        24.0,        12.0,         0.0,         0.0,         0.0,         0.0
"Line.L100"             ,   2,       -24.0,       -12.0
"Line.L101"             ,   1,        52.9,        26.5,         0.0,         0.0,         0.0,         0.0
"Line.L101"             ,   2,       -52.9,       -26.4
"Line.L102"             ,   1,        19.2,         9.6,         0.0,         0.0,         0.0,         0.0
"Line.L102"             ,   2,       -19.2,        -9.6
"Line.L103"             ,   1,         9.6,         4.8,         0.0,         0.0,         0.0,         0.0
"Line.L103"             ,   2,        -9.6,        -4.8
"Line.L104"             ,   1,        19.2,         9.6,         0.0,         0.0,         0.0,         0.0
"Line.L104"             ,   2,       -19.2,        -9.6
"Line.L105"             ,   1,        33.7,        16.8,         0.0,         0.0,         0.0,         0.0
"Line.L105"             ,   2,       -33.7,       -16.8
"Line.L106"             ,   1,         9.6,         4.8,         0.0,         0.0,         0.0,         0.0
"Line.L106"             ,   2,        -9.6,        -4.8
"Line.L107"             ,   1,        33.7,        16.8,         0.0,         0.0,         0.0,         0.0
"Line.L107"             ,   2,       -33.6,       -16.8
"Line.L108"             ,   1,         0.0,        -0.0,         0.0,         0.0,         0.0,         0.0
"Line.L108"             ,   2,         0.0,         0.0
"Line.L109"             ,   1,        24.0,        12.0,         0.0,         0.0,         0.0,         0.0
"Line.L109"             ,   2,       -24.0,       -12.0
"Line.L110"             ,   1,         4.8,         2.4,         0.0,         0.0,         0.0,         0.0
"Line.L110"             ,   2,        -4.8,        -2.4
"Line.L111"             ,   1,        19.2,         9.6,         0.0,         0.0,         0.0,         0.0
"Line.L111"             ,   2,       -19.2,        -9.6
"Line.L112"             ,   1,        14.4,         7.2,         0.0,         0.0,         0.0,         0.0
"Line.L112"             ,   2,       -14.4,        -7.2
"Line.L113"             ,   1,         4.8,         2.4,         0.0,         0.0,         0.0,         0.0
"Line.L113"             ,   2,        -4.8,        -2.4
"Line.L114"             ,   1,       181.7,       113.7,         0.0,         0.0,         0.0,         0.0
"Line.L114"             ,   2,      -181.5,      -113.4
"Line.L116"             ,   1,       479.7,        37.6,         0.0,         0.0,         0.0,         0.0
"Line.L116"             ,   2,      -478.8,       -35.7
"Line.L117"             ,   1,       343.5,       -42.4,         0.0,         0.0,         0.0,         0.0
"Line.L117"             ,   2,      -343.1,        43.4
"Line.SW1"              ,   1,       853.5,       262.2,         0.0,         0.0,         0.0,         0.0
"Line.SW1"              ,   2,      -853.5,      -262.2
"Line.SW2"              ,   1,       479.7,        37.6,         0.0,         0.0,         0.0,         0.0
"Line.SW2"              ,   2,      -479.7,       -37.6
"Line.SW3"              ,   1,       181.7,       113.7,         0.0,         0.0,         0.0,         0.0
"Line.SW3"              ,   2,      -181.7,      -113.7
"Line.SW4"              ,   1,       343.5,       -42.4,         0.0,         0.0,         0.0,         0.0
"Line.SW4"              ,   2,      -343.5,        42.4
"Line.SW5"              ,   1,        76.9,        38.5,         0.0,         0.0,         0.0,         0.0
"Line.SW5"              ,   2,       -76.9,       -38.5
"Line.XFM1"             ,   1,         0.0,         0.0,         0.0,         0.0,         0.0,         0.0
"Line.XFM1"             ,   2,         0.0,         0.0
"Capacitor.C83"         ,   1,         0.0,      -184.6,         0.0,         0.0,         0.0,         0.0
"Capacitor.C83"         ,   2,         0.0,         0.0
"Capacitor.C88"         ,   1,         0.0,       -15.2,         0.0,         0.0,         0.0,         0.0
"Capacitor.C88"         ,   2,         0.0,         0.0
"Capacitor.C90"         ,   1,         0.0,       -15.2,         0.0,         0.0,         0.0,         0.0
"Capacitor.C90"         ,   2,         0.0,         0.0
"Capacitor.C92"         ,   1,         0.0,       -15.2,         0.0,         0.0,         0.0,         0.0
"Capacitor.C92"         ,   2,         0.0,         0.0
"Transformer.REG1A"     ,   1,       853.5,       262.2,         0.0,         0.0,         0.0,         0.0
"Transformer.REG1A"     ,   2,      -853.5,      -262.2
"Transformer.REG2A"     ,   1,        14.4,         7.2,         0.0,         0.0,         0.0,         0.0
"Transformer.REG2A"     ,   2,       -14.4,        -7.2
"Transformer.REG3A"     ,   1,        19.2,         9.6,         0.0,         0.0,         0.0,         0.0
"Transformer.REG3A"     ,   2,       -19.2,        -9.6
"Transformer.REG4A"     ,   1,       343.5,       -42.4,         0.0,         0.0,         0.0,         0.0
"Transformer.REG4A"     ,   2,      -343.5,        42.4
"Load.S1"               ,   1,         9.6,         4.8
"Load.S2"               ,   1,         4.8,         2.4
"Load.S4"               ,   1,         9.6,         4.8
"Load.S5"               ,   1,         4.8,         2.4
"Load.S6"               ,   1,         9.6,         4.8
"Load.S7"               ,   1,         4.8,         2.4
"Load.S9"               ,   1,         9.6,         4.8
"Load.S10"              ,   1,         4.8,         2.4
"Load.S11"              ,   1,         9.6,         4.8
"Load.S12"              ,   1,         4.8,         2.4
"Load.S16"              ,   1,         9.6,         4.8
"Load.S17"              ,   1,         4.8,         2.4
"Load.S19"              ,   1,         9.6,         4.8
"Load.S20"              ,   1,         9.6,         4.8
"Load.S22"              ,   1,         9.6,         4.8
"Load.S24"              ,   1,         9.6,         4.8
"Load.S28"              ,   1,         9.6,         4.8
"Load.S29"              ,   1,         9.6,         4.8
"Load.S30"              ,   1,         9.6,         4.8
"Load.S31"              ,   1,         4.8,         2.4
"Load.S32"              ,   1,         4.8,         2.4
"Load.S33"              ,   1,         9.6,         4.8
"Load.S34"              ,   1,         9.6,         4.8
"Load.S35"              ,   1,         9.6,         4.8
"Load.S37"              ,   1,         9.6,         4.8
"Load.S38"              ,   1,         4.8,         2.4
"Load.S39"              ,   1,         4.8,         2.4
"Load.S41"              ,   1,         4.8,         2.4
"Load.S42"              ,   1,         4.8,         2.4
"Load.S43"              ,   1,         9.6,         4.8
"Load.S45"              ,   1,         4.8,         2.4
"Load.S46"              ,   1,         4.8,         2.4
"Load.S47"              ,   1,        25.2,        18.0
"Load.S48"              ,   1,        50.4,        36.0
"Load.S49"              ,   1,        33.6,        22.8
"Load.S50"              ,   1,         9.6,         4.8
"Load.S51"              ,   1,         4.8,         2.4
"Load.S52"              ,   1,         9.6,         4.8
"Load.S53"              ,   1,         9.6,         4.8
"Load.S55"              ,   1,         4.8,         2.4
"Load.S56"              ,   1,         4.8,         2.4
"Load.S58"              ,   1,         4.8,         2.4
"Load.S59"              ,   1,         4.8,         2.4
"Load.S60"              ,   1,         4.8,         2.4
"Load.S62"              ,   1,         9.6,         4.8
"Load.S63"              ,   1,         9.6,         4.8
"Load.S64"              ,   1,        18.0,         8.4
"Load.S65"              ,   1,        33.6,        24.0
"Load.S66"              ,   1,        18.0,         8.4
"Load.S68"              ,   1,         4.8,         2.4
"Load.S69"              ,   1,         9.6,         4.8
"Load.S70"              ,   1,         4.8,         2.4
"Load.S71"              ,   1,         9.6,         4.8
"Load.S73"              ,   1,         9.6,         4.8
"Load.S74"              ,   1,         9.6,         4.8
"Load.S75"              ,   1,         9.6,         4.8
"Load.S76"              ,   1,        58.8,        43.2
"Load.S77"              ,   1,         9.6,         4.8
"Load.S79"              ,   1,         9.6,         4.8
"Load.S80"              ,   1,         9.6,         4.8
"Load.S82"              ,   1,         9.6,         4.8
"Load.S83"              ,   1,         4.8,         2.4
"Load.S84"              ,   1,         4.8,         2.4
"Load.S85"              ,   1,         9.6,         4.8
"Load.S86"              ,   1,         4.8,         2.4
"Load.S87"              ,   1,         9.6,         4.8
"Load.S88"              ,   1,         9.6,         4.8
"Load.S90"              ,   1,         9.6,         4.8
"Load.S92"              ,   1,         9.6,         4.8
"Load.S94"              ,   1,         9.6,         4.8
"Load.S95"              ,   1,         4.8,         2.4
"Load.S96"              ,   1,         4.8,         2.4
"Load.S98"              ,   1,         9.6,         4.8
"Load.S99"              ,   1,         9.6,         4.8
"Load.S100"             ,   1,         9.6,         4.8
"Load.S102"             ,   1,         4.8,         2.4
"Load.S103"             ,   1,         9.6,         4.8
"Load.S104"             ,   1,         9.6,         4.8
"Load.S106"             ,   1,         9.6,         4.8
"Load.S107"             ,   1,         9.6,         4.8
"Load.S109"             ,   1,         9.6,         4.8
"Load.S111"             ,   1,         4.8,         2.4
"Load.S112"             ,   1,         4.8,         2.4
"Load.S113"             ,   1,         9.6,         4.8
"Load.S114"             ,   1,         4.8,         2.4
"PVSystem.9"            ,   1,         0.0,         0.0
"PVSystem.28"           ,   1,         0.0,         0.0
"PVSystem.48"           ,   1,         0.0,         0.0
"PVSystem.58"           ,   1,         0.0,         0.0
"PVSystem.65"           ,   1,         0.0,         0.0
"PVSystem.76"           ,   1,         0.0,         0.0
"PVSystem.87"           ,   1,         0.0,         0.0
"PVSystem.100"          ,   1,         0.0,         0.0
"Storage.BATTERY9"      ,   1,         0.0,         0.0
"Storage.BATTERY28"     ,   1,         0.0,         0.0
"Storage.BATTERY48"     ,   1,         0.0,         0.0
"Storage.BATTERY58"     ,   1,         0.0,         0.0
"Storage.BATTERY65"     ,   1,         0.0,         0.0
"Storage.BATTERY76"     ,   1,         0.0,         0.0
"Storage.BATTERY87"     ,   1,         0.0,         0.0
"Storage.BATTERY100"    ,   1,         0.0,         0.0
